/*--------------------------------*- C++ -*----------------------------------*\
| =========                 |
| \\      /  F ield         OpenFOAM: The Open Source CFD Toolbox |
|  \\    /   O peration     Version:  2.1.1 |
|   \\  /    A nd           Web:      www.OpenFOAM.org |
|    \\/     M anipulation  |
\*---------------------------------------------------------------------------*/
FoamFile
{
    version     2.0;
    format      ascii;
    class       dictionary;
    object      blockMeshDict;
}
// * * * * * * * * * * * * * * * * * * * * * * * * * * * * * * * * * * * * * //

convertToMeters 1;

vertices
(
    (0 0 0)
    (1 0 0)
    (1 1 0)
    (0 1 0)
    (0 0 1)
    (1 0 1)
    (1 1 1)
    (0 1 1)
);

blocks
(
    hex (0 1 2 3 4 5 6 7) (100 50 1) simpleGrading (1 0.5 1)
);

edges
(
);

patches
(
    patch patch1
    (
        (1 5 6 2)
    )
    patch patch2
    (
        (0 3 7 4)
    )
    patch patch3
    (
        (0 1 5 4)
    )
    patch patch4
    (
        (3 2 6 7)
    )
);

mergePatchPairs
(
);


// ************************************************************************* //
