FoamFile
{
    version     2.0;
    format      ascii;
    class       dictionary;
    object      blockMeshDict;
}

convertToMeters 1.0; // Unidade de comprimento (1.0 significa que usamos metros)

vertices
(
    (-0.5 -0.5 -0.5) // Vértice 0
    ( 0.5 -0.5 -0.5) // Vértice 1
    ( 0.5  0.5 -0.5) // Vértice 2
    (-0.5  0.5 -0.5) // Vértice 3
    (-0.5 -0.5  0.5) // Vértice 4
    ( 0.5 -0.5  0.5) // Vértice 5
    ( 0.5  0.5  0.5) // Vértice 6
    (-0.5  0.5  0.5) // Vértice 7
);

blocks
(
    hex (0 1 2 3 4 5 6 7) (10 10 100) simpleGrading (1 1 1)
    //(10 10 10): //Número de células em cada direção (x, y, z)
    // simpleGrading (1 1 1): Refinamento uniforme em todas as direções
);

edges
(
    // Nenhuma aresta curva é necessária, pois todas as arestas são retas
);

boundary
(
    // Definição das condições de contorno
    frontAndBack
    {
        type patch;
        faces
        (
            (0 4 7 3)
            (1 5 6 2)
        );
    }

    left
    {
        type patch;
        faces
        (
            (0 3 2 1)
        );
    }
    right
    {
	type patch;
	faces
	(
            (4 7 6 5)
	);
    }
    topAndBottom
    {
        type patch;
        faces
        (
            (3 7 6 2)
            (0 4 5 1)
        );
    }
);

mergePatchPairs
(
    // Nenhuma fusão de patches é necessária para este exemplo
);

